<?xml version="1.0" encoding="UTF-8"?>

<!-- generated on 2026-06-11T15:16:54.708581+01:00 by Eclipse SUMO netedit 1.26.0
-->

<routes xmlns:xsi="http://www.w3.org/2001/XMLSchema-instance" xsi:noNamespaceSchemaLocation="http://sumo.dlr.de/xsd/routes_file.xsd">
    <!-- Vehicles, persons and containers (sorted by depart) -->
    <flow id="f_0" begin="0.00" end="3600.00" perHour="250.00" from="E1" to="-E0"/>
    <flow id="f_1" begin="0.00" end="3600.00" perHour="250.00" from="E1" to="E2"/>
    <flow id="f_2" begin="0.00" end="3600.00" perHour="250.00" from="E3" to="E2"/>
    <flow id="f_3" begin="0.00" end="3600.00" perHour="250.00" from="E3" to="-E0"/>
    <flow id="f_4" begin="0.00" end="3600.00" perHour="167.00" color="green" from="E0" to="E2"/>
    <flow id="f_5" begin="0.00" end="3600.00" perHour="167.00" color="green" from="E0" to="-E1"/>
    <flow id="f_6" begin="0.00" end="3600.00" perHour="167.00" color="green" from="E0" to="-E3"/>
    <flow id="f_7" begin="0.00" end="3600.00" perHour="167.00" color="green" from="-E2" to="-E0"/>
    <flow id="f_8" begin="0.00" end="3600.00" perHour="167.00" color="green" from="-E2" to="-E3"/>
    <flow id="f_9" begin="0.00" end="3600.00" perHour="167.00" color="green" from="-E2" to="-E1"/>
</routes>
